<?xml version="1.0" encoding="UTF-8"?>

<!-- generated on 2022-04-13 22:00:14 by Eclipse SUMO netconvert Version 1.12.0
<configuration xmlns:xsi="http://www.w3.org/2001/XMLSchema-instance" xsi:noNamespaceSchemaLocation="http://sumo.dlr.de/xsd/netconvertConfiguration.xsd">

    <input>
        <osm-files value="map.osm"/>
    </input>

    <output>
        <output-file value="map.net.xml"/>
    </output>

    <projection>
        <proj.utm value="true"/>
    </projection>

    <processing>
        <geometry.remove value="true"/>
        <roundabouts.guess value="true"/>
    </processing>

    <tls_building>
        <tls.discard-simple value="true"/>
        <tls.join value="true"/>
        <tls.guess-signals value="true"/>
    </tls_building>

    <ramp_guessing>
        <ramps.guess value="true"/>
    </ramp_guessing>

    <junctions>
        <junctions.join value="true"/>
    </junctions>

    <report>
        <aggregate-warnings value="5"/>
    </report>

</configuration>
-->

<net version="1.9" junctionCornerDetail="5" limitTurnSpeed="5.50" xmlns:xsi="http://www.w3.org/2001/XMLSchema-instance" xsi:noNamespaceSchemaLocation="http://sumo.dlr.de/xsd/net_file.xsd">

    <location netOffset="-273524.90,-4684846.94" convBoundary="0.00,0.00,1723.93,2218.55" origBoundary="-83.747594,42.269591,-83.671427,42.302913" projParameter="+proj=utm +zone=17 +ellps=WGS84 +datum=WGS84 +units=m +no_defs"/>

    <type id="highway.bridleway" priority="1" numLanes="1" speed="2.78" allow="pedestrian" oneway="1" width="2.00"/>
    <type id="highway.bus_guideway" priority="1" numLanes="1" speed="27.78" allow="bus" oneway="1"/>
    <type id="highway.cycleway" priority="1" numLanes="1" speed="8.33" allow="bicycle" oneway="0" width="1.00"/>
    <type id="highway.footway" priority="1" numLanes="1" speed="2.78" allow="pedestrian" oneway="1" width="2.00"/>
    <type id="highway.ford" priority="1" numLanes="1" speed="2.78" allow="army" oneway="0"/>
    <type id="highway.living_street" priority="2" numLanes="1" speed="2.78" disallow="tram rail_urban rail rail_electric rail_fast ship" oneway="0"/>
    <type id="highway.motorway" priority="14" numLanes="2" speed="39.44" allow="private emergency authority army vip passenger hov taxi bus coach delivery truck trailer motorcycle evehicle custom1 custom2" oneway="1"/>
    <type id="highway.motorway_link" priority="9" numLanes="1" speed="22.22" allow="private emergency authority army vip passenger hov taxi bus coach delivery truck trailer motorcycle evehicle custom1 custom2" oneway="1"/>
    <type id="highway.path" priority="1" numLanes="1" speed="2.78" allow="pedestrian bicycle" oneway="0" width="2.00"/>
    <type id="highway.pedestrian" priority="1" numLanes="1" speed="2.78" allow="pedestrian" oneway="1" width="2.00"/>
    <type id="highway.primary" priority="12" numLanes="2" speed="27.78" disallow="tram rail_urban rail rail_electric rail_fast ship" oneway="0"/>
    <type id="highway.primary_link" priority="7" numLanes="1" speed="22.22" disallow="tram rail_urban rail rail_electric rail_fast ship" oneway="0"/>
    <type id="highway.raceway" priority="15" numLanes="2" speed="83.33" allow="vip" oneway="0"/>
    <type id="highway.residential" priority="3" numLanes="1" speed="13.89" disallow="tram rail_urban rail rail_electric rail_fast ship" oneway="0"/>
    <type id="highway.secondary" priority="11" numLanes="1" speed="27.78" disallow="tram rail_urban rail rail_electric rail_fast ship" oneway="0"/>
    <type id="highway.secondary_link" priority="6" numLanes="1" speed="22.22" disallow="tram rail_urban rail rail_electric rail_fast ship" oneway="0"/>
    <type id="highway.service" priority="1" numLanes="1" speed="5.56" allow="pedestrian delivery bicycle" oneway="0"/>
    <type id="highway.stairs" priority="1" numLanes="1" speed="1.39" allow="pedestrian" oneway="1" width="2.00"/>
    <type id="highway.step" priority="1" numLanes="1" speed="1.39" allow="pedestrian" oneway="1" width="2.00"/>
    <type id="highway.steps" priority="1" numLanes="1" speed="1.39" allow="pedestrian" oneway="1" width="2.00"/>
    <type id="highway.tertiary" priority="10" numLanes="1" speed="22.22" disallow="tram rail_urban rail rail_electric rail_fast ship" oneway="0"/>
    <type id="highway.tertiary_link" priority="5" numLanes="1" speed="22.22" disallow="tram rail_urban rail rail_electric rail_fast ship" oneway="0"/>
    <type id="highway.track" priority="1" numLanes="1" speed="5.56" allow="pedestrian motorcycle moped bicycle" oneway="0"/>
    <type id="highway.trunk" priority="13" numLanes="2" speed="27.78" disallow="pedestrian bicycle tram rail_urban rail rail_electric rail_fast ship" oneway="0"/>
    <type id="highway.trunk_link" priority="8" numLanes="1" speed="22.22" disallow="pedestrian bicycle tram rail_urban rail rail_electric rail_fast ship" oneway="0"/>
    <type id="highway.unclassified" priority="4" numLanes="1" speed="13.89" disallow="tram rail_urban rail rail_electric rail_fast ship" oneway="0"/>
    <type id="highway.unsurfaced" priority="1" numLanes="1" speed="8.33" disallow="tram rail_urban rail rail_electric rail_fast ship" oneway="0"/>
    <type id="railway.highspeed" priority="21" numLanes="1" speed="69.44" allow="rail_fast" oneway="1"/>
    <type id="railway.light_rail" priority="19" numLanes="1" speed="27.78" allow="rail_urban" oneway="1"/>
    <type id="railway.preserved" priority="16" numLanes="1" speed="27.78" allow="rail" oneway="1"/>
    <type id="railway.rail" priority="20" numLanes="1" speed="44.44" allow="rail" oneway="1"/>
    <type id="railway.subway" priority="18" numLanes="1" speed="27.78" allow="rail_urban" oneway="1"/>
    <type id="railway.tram" priority="17" numLanes="1" speed="13.89" allow="tram" oneway="1"/>

    <edge id=":1279912929_0" function="internal">
        <lane id=":1279912929_0_0" index="0" allow="pedestrian bicycle" speed="8.33" length="5.19" width="1.00" shape="1081.34,439.15 1080.83,437.70 1080.38,436.74 1079.77,435.87 1078.80,434.68"/>
    </edge>
    <edge id=":1279912929_1" function="internal">
        <lane id=":1279912929_1_0" index="0" allow="pedestrian bicycle" speed="2.04" length="1.23" width="1.00" shape="1081.34,439.15 1081.46,438.71 1081.65,438.51 1081.93,438.55 1082.10,438.68"/>
    </edge>
    <edge id=":1279912929_4" function="internal">
        <lane id=":1279912929_4_0" index="0" allow="pedestrian bicycle" speed="2.04" length="0.23" width="1.00" shape="1082.10,438.68 1082.29,438.83"/>
    </edge>
    <edge id=":1279912929_2" function="internal">
        <lane id=":1279912929_2_0" index="0" allow="pedestrian bicycle" speed="8.33" length="5.57" width="1.00" shape="1079.57,434.04 1080.61,435.31 1081.26,436.25 1081.74,437.27 1082.29,438.83"/>
    </edge>
    <edge id=":1279912929_3" function="internal">
        <lane id=":1279912929_3_0" index="0" allow="pedestrian bicycle" speed="2.04" length="1.26" width="1.00" shape="1079.57,434.04 1079.61,434.48 1079.50,434.74 1079.23,434.81 1079.00,434.74"/>
    </edge>
    <edge id=":1279912929_5" function="internal">
        <lane id=":1279912929_5_0" index="0" allow="pedestrian bicycle" speed="2.04" length="0.21" width="1.00" shape="1079.00,434.74 1078.80,434.68"/>
    </edge>
    <edge id=":1367865800_0" function="internal">
        <lane id=":1367865800_0_0" index="0" disallow="tram rail_urban rail rail_electric rail_fast ship" speed="3.65" length="4.67" shape="366.48,474.81 365.05,474.63 364.34,474.09 364.35,473.19 365.07,471.94"/>
    </edge>
    <edge id=":1729302255_0" function="internal">
        <lane id=":1729302255_0_0" index="0" disallow="tram rail_urban rail rail_electric rail_fast ship" speed="13.89" length="7.33" shape="574.92,713.52 572.97,714.46 571.69,715.24 570.54,716.18 568.94,717.66"/>
    </edge>
    <edge id=":1729302255_1" function="internal">
        <lane id=":1729302255_1_0" index="0" allow="pedestrian delivery bicycle" speed="6.67" length="2.86" shape="574.92,713.52 572.77,714.18 572.16,714.15"/>
    </edge>
    <edge id=":1729302255_7" function="internal">
        <lane id=":1729302255_7_0" index="0" allow="pedestrian delivery bicycle" speed="6.67" length="5.46" shape="572.16,714.15 570.84,714.08 569.13,713.21 567.63,711.57"/>
    </edge>
    <edge id=":1729302255_2" function="internal">
        <lane id=":1729302255_2_0" index="0" allow="pedestrian delivery bicycle" speed="4.75" length="3.77" shape="570.27,709.76 570.94,710.49 571.72,710.88 572.60,710.92 573.58,710.62"/>
    </edge>
    <edge id=":1729302255_3" function="internal">
        <lane id=":1729302255_3_0" index="0" allow="pedestrian delivery bicycle" speed="6.81" length="8.86" shape="570.27,709.76 571.23,711.78 571.33,713.77 570.57,715.73 568.94,717.66"/>
    </edge>
    <edge id=":1729302255_4" function="internal">
        <lane id=":1729302255_4_0" index="0" allow="pedestrian delivery bicycle" speed="3.65" length="4.67" shape="570.27,709.76 570.29,711.20 569.86,711.99 568.97,712.11 567.63,711.57"/>
    </edge>
    <edge id=":1729302255_5" function="internal">
        <lane id=":1729302255_5_0" index="0" allow="pedestrian delivery bicycle" speed="4.95" length="4.25" shape="566.76,715.33 567.60,714.36 568.03,713.41 568.04,712.48 567.63,711.57"/>
    </edge>
    <edge id=":1729302255_6" function="internal">
        <lane id=":1729302255_6_0" index="0" disallow="tram rail_urban rail rail_electric rail_fast ship" speed="13.89" length="8.35" shape="566.76,715.33 568.57,713.64 569.89,712.56 571.35,711.69 573.58,710.62"/>
    </edge>
    <edge id=":2037527986_0" function="internal">
        <lane id=":2037527986_0_0" index="0" allow="pedestrian bicycle" speed="6.66" length="4.49" width="1.00" shape="1115.42,471.17 1114.39,471.51 1113.31,471.59 1112.21,471.44 1111.06,471.05"/>
    </edge>
    <edge id=":2037527986_1" function="internal">
        <lane id=":2037527986_1_0" index="0" allow="pedestrian bicycle" speed="2.04" length="1.46" width="1.00" shape="1115.42,471.17 1114.97,471.10 1114.76,470.92 1114.77,470.64 1115.01,470.26"/>
    </edge>
    <edge id=":2037527986_2" function="internal">
        <lane id=":2037527986_2_0" index="0" allow="pedestrian bicycle" speed="6.03" length="3.66" width="1.00" shape="1111.46,470.13 1112.41,470.46 1113.31,470.59 1114.18,470.52 1115.01,470.26"/>
    </edge>
    <edge id=":2037527986_3" function="internal">
        <lane id=":2037527986_3_0" index="0" allow="pedestrian bicycle" speed="2.04" length="1.46" width="1.00" shape="1111.46,470.13 1111.70,470.51 1111.72,470.79 1111.50,470.97 1111.06,471.05"/>
    </edge>
    <edge id=":2037527991_0" function="internal">
        <lane id=":2037527991_0_0" index="0" allow="pedestrian bicycle" speed="8.33" length="4.79" width="1.00" shape="1203.74,373.42 1202.41,372.92 1201.49,372.61 1200.55,372.37 1199.16,372.06"/>
    </edge>
    <edge id=":2037527991_1" function="internal">
        <lane id=":2037527991_1_0" index="0" allow="bicycle" speed="4.74" length="4.49" width="1.00" shape="1203.74,373.42 1202.63,372.82 1201.92,372.04 1201.61,371.08 1201.69,369.92"/>
    </edge>
    <edge id=":2037527991_2" function="internal">
        <lane id=":2037527991_2_0" index="0" allow="pedestrian bicycle" speed="2.04" length="1.46" width="1.00" shape="1203.74,373.42 1203.48,373.05 1203.45,372.77 1203.66,372.58 1204.10,372.48"/>
    </edge>
    <edge id=":2037527991_3" function="internal">
        <lane id=":2037527991_3_0" index="0" allow="bicycle" speed="3.96" length="3.04" width="1.00" shape="1202.67,370.14 1202.62,370.91 1202.84,371.55 1203.33,372.08 1204.10,372.48"/>
    </edge>
    <edge id=":2037527991_4" function="internal">
        <lane id=":2037527991_4_0" index="0" allow="bicycle" speed="4.53" length="4.54" width="1.00" shape="1202.67,370.14 1202.23,371.22 1201.50,371.90 1200.48,372.18 1199.16,372.06"/>
    </edge>
    <edge id=":2037527991_5" function="internal">
        <lane id=":2037527991_5_0" index="0" allow="bicycle" speed="2.04" length="1.46" width="1.00" shape="1202.67,370.14 1202.34,370.45 1202.07,370.52 1201.85,370.34 1201.69,369.92"/>
    </edge>
    <edge id=":2037527991_6" function="internal">
        <lane id=":2037527991_6_0" index="0" allow="bicycle" speed="3.71" length="2.94" width="1.00" shape="1199.38,371.08 1200.26,371.17 1200.93,371.01 1201.41,370.59 1201.69,369.92"/>
    </edge>
    <edge id=":2037527991_7" function="internal">
        <lane id=":2037527991_7_0" index="0" allow="pedestrian bicycle" speed="8.33" length="4.93" width="1.00" shape="1199.38,371.08 1200.81,371.40 1201.78,371.65 1202.73,371.97 1204.10,372.48"/>
    </edge>
    <edge id=":2037527991_8" function="internal">
        <lane id=":2037527991_8_0" index="0" allow="pedestrian bicycle" speed="2.04" length="1.46" width="1.00" shape="1199.38,371.08 1199.69,371.41 1199.76,371.68 1199.58,371.89 1199.16,372.06"/>
    </edge>
    <edge id=":2037527997_0" function="internal">
        <lane id=":2037527997_0_0" index="0" disallow="tram rail_urban rail rail_electric rail_fast ship" speed="12.53" length="8.23" shape="1219.52,282.91 1218.69,285.11 1218.88,286.89 1219.11,288.69 1218.42,290.97"/>
        <lane id=":2037527997_0_1" index="1" disallow="tram rail_urban rail rail_electric rail_fast ship" speed="12.53" length="8.23" shape="1216.83,281.18 1215.97,283.43 1216.13,285.25 1216.34,287.09 1215.62,289.43"/>
        <lane id=":2037527997_0_2" index="2" disallow="tram rail_urban rail rail_electric rail_fast ship" speed="12.53" length="8.23" shape="1216.83,281.18 1212.82,287.88"/>
    </edge>
    <edge id=":2037527997_3" function="internal">
        <lane id=":2037527997_3_0" index="0" disallow="tram rail_urban rail rail_electric rail_fast ship" speed="12.53" length="8.03" shape="1210.02,286.33 1214.14,279.44"/>
    </edge>
    <edge id=":2039100769_0" function="internal">
        <lane id=":2039100769_0_0" index="0" disallow="tram rail_urban rail rail_electric rail_fast ship" speed="22.22" length="9.31" shape="506.26,371.49 505.79,368.77 505.33,366.94 504.75,365.14 503.95,362.49"/>
    </edge>
    <edge id=":2039100769_1" function="internal">
        <lane id=":2039100769_1_0" index="0" disallow="tram rail_urban rail rail_electric rail_fast ship" speed="5.71" length="6.29" shape="506.26,371.49 505.71,366.04 505.80,365.24"/>
    </edge>
    <edge id=":2039100769_4" function="internal">
        <lane id=":2039100769_4_0" index="0" disallow="tram rail_urban rail rail_electric rail_fast ship" speed="5.71" length="6.51" shape="505.80,365.24 506.01,363.33 507.17,363.36 509.18,366.14"/>
    </edge>
    <edge id=":2039100769_2" function="internal">
        <lane id=":2039100769_2_0" index="0" disallow="tram rail_urban rail rail_electric rail_fast ship" speed="22.22" length="5.03" shape="507.03,361.62 507.47,363.04 507.88,363.98 508.40,364.86 509.18,366.14"/>
    </edge>
    <edge id=":2039100769_3" function="internal">
        <lane id=":2039100769_3_0" index="0" disallow="tram rail_urban rail rail_electric rail_fast ship" speed="3.65" length="1.44" shape="507.03,361.62 506.58,363.00"/>
    </edge>
    <edge id=":2039100769_5" function="internal">
        <lane id=":2039100769_5_0" index="0" disallow="tram rail_urban rail rail_electric rail_fast ship" speed="3.65" length="3.23" shape="506.58,363.00 505.92,363.60 505.04,363.43 503.95,362.49"/>
    </edge>
    <edge id=":2040184220_0" function="internal">
        <lane id=":2040184220_0_0" index="0" allow="pedestrian delivery bicycle" speed="3.65" length="4.67" shape="516.08,410.61 517.51,410.76 518.24,411.29 518.25,412.18 517.56,413.45"/>
    </edge>
    <edge id=":2044154220_0" function="internal">
        <lane id=":2044154220_0_0" index="0" disallow="tram rail_urban rail rail_electric rail_fast ship" speed="3.65" length="4.67" shape="1288.86,224.25 1290.26,224.60 1290.91,225.22 1290.80,226.11 1289.94,227.27"/>
    </edge>
    <edge id=":2044154280_0" function="internal">
        <lane id=":2044154280_0_0" index="0" allow="pedestrian delivery bicycle" speed="5.56" length="8.04" shape="1034.13,185.58 1032.31,186.49 1031.14,187.86 1030.62,189.69 1030.75,191.98"/>
    </edge>
    <edge id=":2044154280_1" function="internal">
        <lane id=":2044154280_1_0" index="0" allow="pedestrian delivery bicycle" speed="5.56" length="9.44" shape="1034.13,185.58 1031.46,186.42 1029.56,186.83 1027.64,186.82 1024.89,186.39"/>
    </edge>
    <edge id=":2044154280_2" function="internal">
        <lane id=":2044154280_2_0" index="0" allow="pedestrian delivery bicycle" speed="3.72" length="4.95" shape="1034.13,185.58 1032.60,185.66 1031.75,185.24 1031.58,184.31 1032.09,182.87"/>
    </edge>
    <edge id=":2044154280_3" function="internal">
        <lane id=":2044154280_3_0" index="0" allow="pedestrian delivery bicycle" speed="5.56" length="6.74" shape="1025.48,183.24 1027.44,183.58 1028.82,183.66 1030.19,183.44 1032.09,182.87"/>
    </edge>
    <edge id=":2044154280_4" function="internal">
        <lane id=":2044154280_4_0" index="0" allow="pedestrian delivery bicycle" speed="5.56" length="10.76" shape="1025.48,183.24 1027.24,184.06 1028.71,185.79 1029.88,188.43 1030.75,191.98"/>
    </edge>
    <edge id=":2044154280_5" function="internal">
        <lane id=":2044154280_5_0" index="0" allow="pedestrian delivery bicycle" speed="3.65" length="4.67" shape="1025.48,183.24 1026.51,184.25 1026.76,185.11 1026.22,185.82 1024.89,186.39"/>
    </edge>
    <edge id=":2044154280_6" function="internal">
        <lane id=":2044154280_6_0" index="0" allow="pedestrian delivery bicycle" speed="5.15" length="5.32" shape="1027.28,190.39 1027.39,188.86 1027.02,187.68 1026.19,186.85 1024.89,186.39"/>
    </edge>
    <edge id=":2044154280_7" function="internal">
        <lane id=":2044154280_7_0" index="0" allow="pedestrian delivery bicycle" speed="5.56" length="9.34" shape="1027.28,190.39 1028.06,187.53 1029.12,185.32 1030.46,183.76 1032.09,182.87"/>
    </edge>
    <edge id=":2044154280_8" function="internal">
        <lane id=":2044154280_8_0" index="0" allow="pedestrian delivery bicycle" speed="4.08" length="5.58" shape="1027.28,190.39 1028.74,189.49 1029.81,189.45 1030.48,190.29 1030.75,191.98"/>
    </edge>
    <edge id=":2044154369_0" function="internal">
        <lane id=":2044154369_0_0" index="0" allow="pedestrian delivery bicycle" speed="3.65" length="4.67" shape="981.64,142.94 982.50,141.78 983.32,141.42 984.10,141.86 984.83,143.10"/>
    </edge>
    <edge id=":2044154436_0" function="internal">
        <lane id=":2044154436_0_0" index="0" allow="pedestrian delivery bicycle" speed="5.56" length="1.13" shape="1262.75,155.56 1263.24,155.45 1263.59,155.40 1263.93,155.42 1264.43,155.47"/>
        <lane id=":2044154436_0_1" index="1" allow="pedestrian delivery bicycle" speed="5.56" length="1.13" shape="1263.46,158.68 1263.63,158.64 1263.74,158.63 1263.86,158.63 1264.02,158.65"/>
    </edge>
    <edge id=":2044154443_0" function="internal">
        <lane id=":2044154443_0_0" index="0" allow="pedestrian delivery bicycle" speed="5.56" length="21.35" shape="1269.43,202.93 1266.67,200.93 1262.33,199.68 1256.41,199.19 1248.92,199.44"/>
    </edge>
    <edge id=":2044154443_1" function="internal">
        <lane id=":2044154443_1_0" index="0" allow="pedestrian delivery bicycle" speed="5.56" length="24.35" shape="1269.43,202.93 1264.57,198.93 1259.60,197.08 1254.55,195.30 1249.42,191.54"/>
        <lane id=":2044154443_1_1" index="1" allow="pedestrian delivery bicycle" speed="5.56" length="24.35" shape="1271.75,200.72 1266.65,196.47 1261.16,194.06 1255.58,191.73 1250.22,187.71"/>
    </edge>
    <edge id=":2044154443_3" function="internal">
        <lane id=":2044154443_3_0" index="0" allow="pedestrian delivery bicycle" speed="5.56" length="24.38" shape="1272.98,196.40 1267.02,198.95 1261.49,199.58 1255.69,199.37 1248.92,199.44"/>
        <lane id=":2044154443_3_1" index="1" allow="pedestrian delivery bicycle" speed="5.56" length="24.38" shape="1272.24,193.11 1266.35,195.68 1260.99,196.34 1255.37,196.17 1248.68,196.25"/>
    </edge>
    <edge id=":2044154443_5" function="internal">
        <lane id=":2044154443_5_0" index="0" allow="pedestrian delivery bicycle" speed="5.56" length="24.74" shape="1272.24,193.11 1266.82,195.22 1261.35,195.02 1255.81,192.52 1250.22,187.71"/>
    </edge>
    <edge id=":2044154448_0" function="internal">
        <lane id=":2044154448_0_0" index="0" allow="pedestrian delivery bicycle" speed="5.56" length="1.80" shape="1043.96,193.19 1043.83,193.71 1043.71,194.06 1043.53,194.38 1043.24,194.83"/>
    </edge>
    <edge id=":2044154448_1" function="internal">
        <lane id=":2044154448_1_0" index="0" allow="pedestrian delivery bicycle" speed="5.56" length="0.60" shape="1040.60,193.02 1040.70,192.87 1040.76,192.76 1040.80,192.65 1040.84,192.47"/>
    </edge>
    <edge id=":2263766549_0" function="internal">
        <lane id=":2263766549_0_0" index="0" disallow="tram rail_urban rail rail_electric rail_fast ship" speed="13.89" length="4.97" shape="1582.57,900.40 1577.88,898.76"/>
    </edge>
    <edge id=":2263766549_1" function="internal">
        <lane id=":2263766549_1_0" index="0" disallow="tram rail_urban rail rail_electric rail_fast ship" speed="13.89" length="5.02" shape="1578.92,895.74 1583.66,897.39"/>
    </edge>
    <edge id=":2342114817_0" function="internal">
        <lane id=":2342114817_0_0" index="0" allow="pedestrian delivery bicycle" speed="3.65" length="4.67" shape="750.50,744.77 749.95,743.44 750.07,742.55 750.85,742.11 752.29,742.12"/>
    </edge>
    <edge id=":2667121748_0" function="internal">
        <lane id=":2667121748_0_0" index="0" allow="pedestrian delivery bicycle" speed="3.65" length="4.67" shape="418.35,580.61 417.57,579.40 417.52,578.51 418.20,577.94 419.62,577.68"/>
    </edge>
    <edge id=":2667121771_0" function="internal">
        <lane id=":2667121771_0_0" index="0" allow="pedestrian delivery bicycle" speed="4.99" length="5.06" shape="507.72,590.30 506.45,589.71 505.32,589.69 504.32,590.22 503.45,591.32"/>
    </edge>
    <edge id=":2667121771_1" function="internal">
        <lane id=":2667121771_1_0" index="0" disallow="tram rail_urban rail rail_electric rail_fast ship" speed="13.41" length="9.41" shape="507.72,590.30 499.84,585.16"/>
        <lane id=":2667121771_1_1" index="1" disallow="tram rail_urban rail rail_electric rail_fast ship" speed="13.41" length="9.41" shape="509.47,587.62 501.59,582.48"/>
    </edge>
    <edge id=":2667121771_3" function="internal">
        <lane id=":2667121771_3_0" index="0" disallow="tram rail_urban rail rail_electric rail_fast ship" speed="13.41" length="9.41" shape="505.08,577.12 512.96,582.26"/>
        <lane id=":2667121771_3_1" index="1" disallow="tram rail_urban rail rail_electric rail_fast ship" speed="13.41" length="9.41" shape="503.33,579.80 511.22,584.94"/>
    </edge>
    <edge id=":2667121771_5" function="internal">
        <lane id=":2667121771_5_0" index="0" allow="pedestrian delivery bicycle" speed="7.77" length="2.68" shape="503.33,579.80 505.19,581.73"/>
    </edge>
    <edge id=":2667121771_9" function="internal">
        <lane id=":2667121771_9_0" index="0" allow="pedestrian delivery bicycle" speed="7.77" length="10.12" shape="505.19,581.73 505.83,584.29 505.25,587.49 503.45,591.32"/>
    </edge>
    <edge id=":2667121771_6" function="internal">
        <lane id=":2667121771_6_0" index="0" allow="pedestrian delivery bicycle" speed="5.22" length="5.21" shape="500.69,589.71 501.26,588.34 501.32,587.12 500.84,586.07 499.84,585.16"/>
    </edge>
    <edge id=":2667121771_7" function="internal">
        <lane id=":2667121771_7_0" index="0" allow="pedestrian delivery bicycle" speed="7.60" length="13.19" shape="500.69,589.71 503.18,586.25 505.77,584.30 508.45,583.86 511.22,584.94"/>
    </edge>
    <edge id=":2667121771_8" function="internal">
        <lane id=":2667121771_8_0" index="0" allow="pedestrian delivery bicycle" speed="3.65" length="4.67" shape="500.69,589.71 501.98,589.07 502.87,589.13 503.36,589.88 503.45,591.32"/>
    </edge>
    <edge id=":2667121783_0" function="internal">
        <lane id=":2667121783_0_0" index="0" allow="pedestrian delivery bicycle" speed="3.65" length="4.67" shape="312.83,587.29 311.40,587.18 310.66,586.67 310.62,585.78 311.28,584.50"/>
    </edge>
    <edge id=":303965396_0" function="internal">
        <lane id=":303965396_0_0" index="0" allow="pedestrian bicycle" speed="7.96" length="2.36" width="1.00" shape="538.14,688.41 537.46,688.41 537.01,688.55 536.57,688.79 535.93,689.09"/>
    </edge>
    <edge id=":303965396_1" function="internal">
        <lane id=":303965396_1_0" index="0" allow="pedestrian bicycle" speed="3.94" length="3.40" width="1.00" shape="538.14,688.41 537.61,688.02 537.41,687.19 537.41,686.19 537.50,685.30"/>
    </edge>
    <edge id=":303965396_2" function="internal">
        <lane id=":303965396_2_0" index="0" allow="pedestrian bicycle" speed="2.04" length="1.46" width="1.00" shape="538.14,688.41 537.79,688.12 537.69,687.86 537.84,687.62 538.24,687.41"/>
    </edge>
    <edge id=":303965396_3" function="internal">
        <lane id=":303965396_3_0" index="0" allow="pedestrian bicycle" speed="3.34" length="2.35" width="1.00" shape="538.50,685.42 538.27,686.14 537.95,686.75 537.85,687.20 538.24,687.41"/>
    </edge>
    <edge id=":303965396_4" function="internal">
        <lane id=":303965396_4_0" index="0" allow="pedestrian bicycle" speed="5.74" length="4.72" width="1.00" shape="538.50,685.42 538.22,686.70 537.69,687.74 536.93,688.53 535.93,689.09"/>
    </edge>
    <edge id=":303965396_5" function="internal">
        <lane id=":303965396_5_0" index="0" allow="pedestrian bicycle" speed="2.04" length="1.46" width="1.00" shape="538.50,685.42 538.20,685.76 537.94,685.86 537.71,685.71 537.50,685.30"/>
    </edge>
    <edge id=":303965396_6" function="internal">
        <lane id=":303965396_6_0" index="0" allow="pedestrian bicycle" speed="5.06" length="3.63" width="1.00" shape="535.57,688.16 536.32,687.74 536.89,687.12 537.29,686.31 537.50,685.30"/>
    </edge>
    <edge id=":303965396_7" function="internal">
        <lane id=":303965396_7_0" index="0" allow="pedestrian bicycle" speed="8.33" length="2.83" width="1.00" shape="535.57,688.16 536.34,687.81 536.87,687.54 537.42,687.40 538.24,687.41"/>
    </edge>
    <edge id=":303965396_8" function="internal">
        <lane id=":303965396_8_0" index="0" allow="pedestrian bicycle" speed="2.04" length="1.46" width="1.00" shape="535.57,688.16 536.01,688.26 536.22,688.44 536.19,688.72 535.93,689.09"/>
    </edge>
    <edge id=":303969737_0" function="internal">
        <lane id=":303969737_0_0" index="0" allow="pedestrian bicycle" speed="4.70" length="3.86" width="1.00" shape="1190.71,374.23 1189.84,375.03 1188.98,375.49 1188.14,375.60 1187.31,375.37"/>
    </edge>
    <edge id=":303969737_1" function="internal">
        <lane id=":303969737_1_0" index="0" allow="pedestrian bicycle" speed="2.04" length="1.46" width="1.00" shape="1190.71,374.23 1190.27,374.34 1190.01,374.26 1189.91,374.00 1189.97,373.56"/>
    </edge>
    <edge id=":303969737_2" function="internal">
        <lane id=":303969737_2_0" index="0" allow="pedestrian bicycle" speed="3.90" length="2.57" width="1.00" shape="1187.75,374.47 1188.25,374.59 1188.79,374.48 1189.36,374.13 1189.97,373.56"/>
    </edge>
    <edge id=":303969737_3" function="internal">
        <lane id=":303969737_3_0" index="0" allow="pedestrian bicycle" speed="2.04" length="1.46" width="1.00" shape="1187.75,374.47 1187.98,374.86 1187.98,375.14 1187.76,375.31 1187.31,375.37"/>
    </edge>
    <edge id=":303969755_0" function="internal">
        <lane id=":303969755_0_0" index="0" allow="pedestrian bicycle" speed="2.04" length="1.46" width="1.00" shape="1723.73,414.67 1724.10,414.91 1724.23,415.16 1724.11,415.41 1723.74,415.67"/>
    </edge>
    <edge id=":305086635_0" function="internal">
        <lane id=":305086635_0_0" index="0" allow="bicycle" speed="4.33" length="2.26" width="1.00" shape="1209.82,343.18 1209.16,343.29 1208.62,343.37 1208.21,343.58 1207.93,344.10"/>
    </edge>
    <edge id=":305086635_1" function="internal">
        <lane id=":305086635_1_0" index="0" allow="pedestrian bicycle" speed="2.78" length="2.92" width="2.00" shape="1209.70,342.69 1208.86,342.38 1208.50,341.95 1208.62,341.41 1209.23,340.75"/>
    </edge>
    <edge id=":305086635_2" function="internal">
        <lane id=":305086635_2_0" index="0" allow="bicycle" speed="5.55" length="4.29" width="2.00" shape="1206.97,343.83 1207.47,342.37 1208.00,341.29 1208.55,340.59 1209.12,340.26"/>
    </edge>
    <edge id=":305086635_3" function="internal">
        <lane id=":305086635_3_0" index="0" allow="bicycle" speed="2.04" length="1.46" width="1.00" shape="1206.97,343.83 1207.31,343.54 1207.58,343.48 1207.79,343.67 1207.93,344.10"/>
    </edge>
    <edge id=":305086638_0" function="internal">
        <lane id=":305086638_0_0" index="0" allow="pedestrian bicycle" speed="4.17" length="4.56" shape="1291.11,343.58 1289.74,343.64 1288.74,344.05 1288.13,344.81 1287.90,345.91"/>
    </edge>
    <edge id=":305086638_1" function="internal">
        <lane id=":305086638_1_0" index="0" allow="pedestrian bicycle" speed="2.78" length="10.78" width="2.00" shape="1291.11,343.58 1288.04,343.30 1285.77,342.93 1283.55,342.33 1280.61,341.38"/>
    </edge>
    <edge id=":305086638_2" function="internal">
        <lane id=":305086638_2_0" index="0" allow="pedestrian bicycle" speed="4.17" length="9.91" shape="1291.11,343.58 1288.36,343.03 1286.33,341.85 1285.04,340.03 1284.47,337.58"/>
    </edge>
    <edge id=":305086638_3" function="internal">
        <lane id=":305086638_3_0" index="0" allow="pedestrian bicycle" speed="2.78" length="2.92" width="2.00" shape="1291.11,343.58 1290.40,343.02 1290.19,342.51 1290.48,342.03 1291.26,341.58"/>
    </edge>
    <edge id=":305086638_4" function="internal">
        <lane id=":305086638_4_0" index="0" allow="pedestrian bicycle" speed="4.17" length="6.15" width="2.00" shape="1287.66,337.34 1287.99,339.11 1288.71,340.40 1289.79,341.23 1291.26,341.58"/>
    </edge>