<?xml version="1.0" encoding="UTF-8"?>
<!-- generated on 2022-04-14 03:05:26.811696 by randomTrips.py v1_12_0+0000-800cb422fa4
  options: -n test.net.xml -e 1000 -o downtown.trips.xml
-->
<routes xmlns:xsi="http://www.w3.org/2001/XMLSchema-instance" xsi:noNamespaceSchemaLocation="http://sumo.dlr.de/xsd/routes_file.xsd">
    <trip id="0" depart="0.00" from="441598618#3" to="-316090724#1"/>
    <trip id="1" depart="1.00" from="-8723402#8" to="-8723402#0"/>
    <trip id="2" depart="2.00" from="8723036#1" to="441598638#0"/>
    <trip id="3" depart="3.00" from="8734302#3" to="-441448159#0"/>
    <trip id="4" depart="4.00" from="-9257818#0" to="-316090724#2"/>
    <trip id="5" depart="5.00" from="-8723400#0" to="316090724#2"/>
    <trip id="6" depart="6.00" from="-316090724#0" to="-8722107#0"/>
    <trip id="7" depart="7.00" from="441598619" to="410027434#0"/>
    <trip id="8" depart="8.00" from="-8723400#0" to="441448163#1"/>
    <trip id="9" depart="9.00" from="8724078#2" to="-222784526#0"/>
    <trip id="10" depart="10.00" from="8724078#1" to="441598639#4"/>
    <trip id="11" depart="11.00" from="-8730083#1" to="-441598630"/>
    <trip id="12" depart="12.00" from="9257816" to="-8731887#1"/>
    <trip id="13" depart="13.00" from="-441448159#1" to="-441566047#0"/>
    <trip id="14" depart="14.00" from="8727887#7" to="441598583"/>
    <trip id="15" depart="15.00" from="8724078#1" to="8722107#0"/>
    <trip id="16" depart="16.00" from="410015012#4" to="9257819#0"/>
    <trip id="17" depart="17.00" from="-8734341#2" to="410027434#2"/>
    <trip id="18" depart="18.00" from="8727887#2" to="441598597#1"/>
    <trip id="19" depart="19.00" from="8730083#1" to="441448159#1"/>
    <trip id="20" depart="20.00" from="8730083#1" to="441448159#1"/>
    <trip id="21" depart="21.00" from="-8723402#0" to="-8727887#0"/>
    <trip id="22" depart="22.00" from="-410027435#2" to="-8723402#11"/>
    <trip id="23" depart="23.00" from="-441566047#0" to="-8724078#0"/>
    <trip id="24" depart="24.00" from="441598618#2" to="-8734341#0"/>
    <trip id="25" depart="25.00" from="-441448159#1" to="-441566047#0"/>
    <trip id="26" depart="26.00" from="-8723402#6" to="8734623#5"/>
    <trip id="27" depart="27.00" from="441598619" to="441598588"/>
    <trip id="28" depart="28.00" from="-441598639#1" to="8722107#0"/>
    <trip id="29" depart="29.00" from="-441598638#0" to="-8734623#1"/>
    <trip id="30" depart="30.00" from="9686979#0" to="441598618#0"/>
    <trip id="31" depart="31.00" from="410027435#2" to="441598639#0"/>
    <trip id="32" depart="32.00" from="8727887#5" to="8723402#14"/>
    <trip id="33" depart="33.00" from="-8723402#0" to="-316090724#2"/>
    <trip id="34" depart="34.00" from="-8727887#4" to="-8723402#7"/>
    <trip id="35" depart="35.00" from="-8722107#1" to="8734683#0"/>
    <trip id="36" depart="36.00" from="8734192" to="-8727887#7"/>
    <trip id="37" depart="37.00" from="441598629#0" to="-8734623#5"/>
    <trip id="38" depart="38.00" from="410027435#2" to="441598639#0"/>
    <trip id="39" depart="39.00" from="-8723402#5" to="-8723402#2"/>
    <trip id="40" depart="40.00" from="410027435#3" to="-8723402#6"/>
    <trip id="41" depart="41.00" from="441566047#0" to="8734302#3"/>
    <trip id="42" depart="42.00" from="-8734623#5" to="-8723400#2"/>
    <trip id="43" depart="43.00" from="9686979#2" to="316090724#3"/>
    <trip id="44" depart="44.00" from="-441448159#0" to="-410015012#2"/>
    <trip id="45" depart="45.00" from="-441566047#2" to="441598604#0"/>
    <trip id="46" depart="46.00" from="8723402#7" to="-9257819#0"/>
    <trip id="47" depart="47.00" from="-410027434#0" to="-8734623#1"/>
    <trip id="48" depart="48.00" from="9686979#1" to="410015012#1"/>
    <trip id="49" depart="49.00" from="9257819#1" to="8727887#7"/>
    <trip id="50" depart="50.00" from="-222787431#0" to="641843556"/>
    <trip id="51" depart="51.00" from="441598639#1" to="410015012#3"/>
    <trip id="52" depart="52.00" from="-8723402#5" to="441598618#0"/>
    <trip id="53" depart="53.00" from="-441598583" to="-963432309"/>
    <trip id="54" depart="54.00" from="-9686979#2" to="9257814#0"/>
    <trip id="55" depart="55.00" from="8734192" to="-8723402#6"/>
    <trip id="56" depart="56.00" from="316090724#2" to="-441598654"/>
    
</routes>
