<?xml version="1.0" encoding="UTF-8"?>


<configuration xmlns:xsi="http://www.w3.org/2001/XMLSchema-instance" xsi:noNamespaceSchemaLocation="http://sumo.dlr.de/xsd/duarouterConfiguration.xsd">

    <input>
        <net-file value="test.net.xml"/>
        <route-files value="downtown.trips.xml"/>
    </input>
	
	<time>
		<begin value="0"/>
		<end value="1000"/>
	</time>

</configuration>	
		


