<?xml version="1.0" encoding="UTF-8"?>

<!-- generated on 2022-04-14 02:27:15 by Eclipse SUMO netconvert Version 1.12.0
<configuration xmlns:xsi="http://www.w3.org/2001/XMLSchema-instance" xsi:noNamespaceSchemaLocation="http://sumo.dlr.de/xsd/netconvertConfiguration.xsd">

    <input>
        <osm-files value="downtown.osm"/>
    </input>

    <output>
        <output-file value="test.net.xml"/>
    </output>

    <projection>
        <proj.utm value="true"/>
    </projection>

    <report>
        <aggregate-warnings value="5"/>
    </report>

</configuration>
-->

<net version="1.9" junctionCornerDetail="5" limitTurnSpeed="5.50" xmlns:xsi="http://www.w3.org/2001/XMLSchema-instance" xsi:noNamespaceSchemaLocation="http://sumo.dlr.de/xsd/net_file.xsd">

    <location netOffset="-273524.90,-4684846.94" convBoundary="0.00,0.00,1723.93,2218.55" origBoundary="-83.747594,42.269591,-83.671427,42.302913" projParameter="+proj=utm +zone=17 +ellps=WGS84 +datum=WGS84 +units=m +no_defs"/>

    <type id="highway.bridleway" priority="1" numLanes="1" speed="2.78" allow="pedestrian" oneway="1" width="2.00"/>
    <type id="highway.bus_guideway" priority="1" numLanes="1" speed="27.78" allow="bus" oneway="1"/>
    <type id="highway.cycleway" priority="1" numLanes="1" speed="8.33" allow="bicycle" oneway="0" width="1.00"/>
    <type id="highway.footway" priority="1" numLanes="1" speed="2.78" allow="pedestrian" oneway="1" width="2.00"/>
    <type id="highway.ford" priority="1" numLanes="1" speed="2.78" allow="army" oneway="0"/>
    <type id="highway.living_street" priority="2" numLanes="1" speed="2.78" disallow="tram rail_urban rail rail_electric rail_fast ship" oneway="0"/>
    <type id="highway.motorway" priority="14" numLanes="2" speed="39.44" allow="private emergency authority army vip passenger hov taxi bus coach delivery truck trailer motorcycle evehicle custom1 custom2" oneway="1"/>
    <type id="highway.motorway_link" priority="9" numLanes="1" speed="22.22" allow="private emergency authority army vip passenger hov taxi bus coach delivery truck trailer motorcycle evehicle custom1 custom2" oneway="1"/>
    <type id="highway.path" priority="1" numLanes="1" speed="2.78" allow="pedestrian bicycle" oneway="0" width="2.00"/>
    <type id="highway.pedestrian" priority="1" numLanes="1" speed="2.78" allow="pedestrian" oneway="1" width="2.00"/>
    <type id="highway.primary" priority="12" numLanes="2" speed="27.78" disallow="tram rail_urban rail rail_electric rail_fast ship" oneway="0"/>
    <type id="highway.primary_link" priority="7" numLanes="1" speed="22.22" disallow="tram rail_urban rail rail_electric rail_fast ship" oneway="0"/>
    <type id="highway.raceway" priority="15" numLanes="2" speed="83.33" allow="vip" oneway="0"/>
    <type id="highway.residential" priority="3" numLanes="1" speed="13.89" disallow="tram rail_urban rail rail_electric rail_fast ship" oneway="0"/>
    <type id="highway.secondary" priority="11" numLanes="1" speed="27.78" disallow="tram rail_urban rail rail_electric rail_fast ship" oneway="0"/>
    <type id="highway.secondary_link" priority="6" numLanes="1" speed="22.22" disallow="tram rail_urban rail rail_electric rail_fast ship" oneway="0"/>
    <type id="highway.service" priority="1" numLanes="1" speed="5.56" allow="pedestrian delivery bicycle" oneway="0"/>
    <type id="highway.stairs" priority="1" numLanes="1" speed="1.39" allow="pedestrian" oneway="1" width="2.00"/>
    <type id="highway.step" priority="1" numLanes="1" speed="1.39" allow="pedestrian" oneway="1" width="2.00"/>
    <type id="highway.steps" priority="1" numLanes="1" speed="1.39" allow="pedestrian" oneway="1" width="2.00"/>
    <type id="highway.tertiary" priority="10" numLanes="1" speed="22.22" disallow="tram rail_urban rail rail_electric rail_fast ship" oneway="0"/>
    <type id="highway.tertiary_link" priority="5" numLanes="1" speed="22.22" disallow="tram rail_urban rail rail_electric rail_fast ship" oneway="0"/>
    <type id="highway.track" priority="1" numLanes="1" speed="5.56" allow="pedestrian motorcycle moped bicycle" oneway="0"/>
    <type id="highway.trunk" priority="13" numLanes="2" speed="27.78" disallow="pedestrian bicycle tram rail_urban rail rail_electric rail_fast ship" oneway="0"/>
    <type id="highway.trunk_link" priority="8" numLanes="1" speed="22.22" disallow="pedestrian bicycle tram rail_urban rail rail_electric rail_fast ship" oneway="0"/>
    <type id="highway.unclassified" priority="4" numLanes="1" speed="13.89" disallow="tram rail_urban rail rail_electric rail_fast ship" oneway="0"/>
    <type id="highway.unsurfaced" priority="1" numLanes="1" speed="8.33" disallow="tram rail_urban rail rail_electric rail_fast ship" oneway="0"/>
    <type id="railway.highspeed" priority="21" numLanes="1" speed="69.44" allow="rail_fast" oneway="1"/>
    <type id="railway.light_rail" priority="19" numLanes="1" speed="27.78" allow="rail_urban" oneway="1"/>
    <type id="railway.preserved" priority="16" numLanes="1" speed="27.78" allow="rail" oneway="1"/>
    <type id="railway.rail" priority="20" numLanes="1" speed="44.44" allow="rail" oneway="1"/>
    <type id="railway.subway" priority="18" numLanes="1" speed="27.78" allow="rail_urban" oneway="1"/>
    <type id="railway.tram" priority="17" numLanes="1" speed="13.89" allow="tram" oneway="1"/>

    <edge id=":1279912929_0" function="internal">
        <lane id=":1279912929_0_0" index="0" allow="pedestrian bicycle" speed="8.33" length="5.19" width="1.00" shape="1081.34,439.15 1080.83,437.70 1080.38,436.74 1079.77,435.87 1078.80,434.68"/>
    </edge>
    <edge id=":1279912929_1" function="internal">
        <lane id=":1279912929_1_0" index="0" allow="pedestrian bicycle" speed="2.04" length="1.23" width="1.00" shape="1081.34,439.15 1081.46,438.71 1081.65,438.51 1081.93,438.55 1082.10,438.68"/>
    </edge>
    <edge id=":1279912929_4" function="internal">
        <lane id=":1279912929_4_0" index="0" allow="pedestrian bicycle" speed="2.04" length="0.23" width="1.00" shape="1082.10,438.68 1082.29,438.83"/>
    </edge>
    <edge id=":1279912929_2" function="internal">
        <lane id=":1279912929_2_0" index="0" allow="pedestrian bicycle" speed="8.33" length="5.57" width="1.00" shape="1079.57,434.04 1080.61,435.31 1081.26,436.25 1081.74,437.27 1082.29,438.83"/>
    </edge>
    <edge id=":1279912929_3" function="internal">
        <lane id=":1279912929_3_0" index="0" allow="pedestrian bicycle" speed="2.04" length="1.26" width="1.00" shape="1079.57,434.04 1079.61,434.48 1079.50,434.74 1079.23,434.81 1079.00,434.74"/>
    </edge>
    <edge id=":1279912929_5" function="internal">
        <lane id=":1279912929_5_0" index="0" allow="pedestrian bicycle" speed="2.04" length="0.21" width="1.00" shape="1079.00,434.74 1078.80,434.68"/>
    </edge>
    <edge id=":1367865800_0" function="internal">
        <lane id=":1367865800_0_0" index="0" disallow="tram rail_urban rail rail_electric rail_fast ship" speed="3.65" length="4.67" shape="366.48,474.81 365.05,474.63 364.34,474.09 364.35,473.19 365.07,471.94"/>
    </edge>
    <edge id=":1729302225_0" function="internal">
        <lane id=":1729302225_0_0" index="0" allow="pedestrian bicycle" speed="8.33" length="0.10" width="1.00" shape="561.18,606.02 561.15,606.03 561.14,606.04 561.12,606.05 561.09,606.07"/>
    </edge>
    <edge id=":1729302225_1" function="internal">
        <lane id=":1729302225_1_0" index="0" allow="pedestrian bicycle" speed="8.33" length="0.31" width="1.00" shape="560.48,605.28 560.56,605.22 560.61,605.19 560.67,605.16 560.75,605.11"/>
    </edge>
    <edge id=":1729302255_0" function="internal">
        <lane id=":1729302255_0_0" index="0" disallow="tram rail_urban rail rail_electric rail_fast ship" speed="13.89" length="7.33" shape="574.92,713.52 572.97,714.46 571.69,715.24 570.54,716.18 568.94,717.66"/>
    </edge>
    <edge id=":1729302255_1" function="internal">
        <lane id=":1729302255_1_0" index="0" allow="pedestrian delivery bicycle" speed="6.67" length="2.86" shape="574.92,713.52 572.77,714.18 572.16,714.15"/>
    </edge>
    <edge id=":1729302255_7" function="internal">
        <lane id=":1729302255_7_0" index="0" allow="pedestrian delivery bicycle" speed="6.67" length="5.46" shape="572.16,714.15 570.84,714.08 569.13,713.21 567.63,711.57"/>
    </edge>
    <edge id=":1729302255_2" function="internal">
        <lane id=":1729302255_2_0" index="0" allow="pedestrian delivery bicycle" speed="4.75" length="3.77" shape="570.27,709.76 570.94,710.49 571.72,710.88 572.60,710.92 573.58,710.62"/>
    </edge>
    <edge id=":1729302255_3" function="internal">
        <lane id=":1729302255_3_0" index="0" allow="pedestrian delivery bicycle" speed="6.81" length="8.86" shape="570.27,709.76 571.23,711.78 571.33,713.77 570.57,715.73 568.94,717.66"/>
    </edge>
    <edge id=":1729302255_4" function="internal">
        <lane id=":1729302255_4_0" index="0" allow="pedestrian delivery bicycle" speed="3.65" length="4.67" shape="570.27,709.76 570.29,711.20 569.86,711.99 568.97,712.11 567.63,711.57"/>
    </edge>
    <edge id=":1729302255_5" function="internal">
        <lane id=":1729302255_5_0" index="0" allow="pedestrian delivery bicycle" speed="4.95" length="4.25" shape="566.76,715.33 567.60,714.36 568.03,713.41 568.04,712.48 567.63,711.57"/>
    </edge>
    <edge id=":1729302255_6" function="internal">
        <lane id=":1729302255_6_0" index="0" disallow="tram rail_urban rail rail_electric rail_fast ship" speed="13.89" length="8.35" shape="566.76,715.33 568.57,713.64 569.89,712.56 571.35,711.69 573.58,710.62"/>
    </edge>
    <edge id=":2037527986_0" function="internal">
        <lane id=":2037527986_0_0" index="0" allow="pedestrian bicycle" speed="6.66" length="4.49" width="1.00" shape="1115.42,471.17 1114.39,471.51 1113.31,471.59 1112.21,471.44 1111.06,471.05"/>
    </edge>
    <edge id=":2037527986_1" function="internal">
        <lane id=":2037527986_1_0" index="0" allow="pedestrian bicycle" speed="2.04" length="1.46" width="1.00" shape="1115.42,471.17 1114.97,471.10 1114.76,470.92 1114.77,470.64 1115.01,470.26"/>
    </edge>
    <edge id=":2037527986_2" function="internal">
        <lane id=":2037527986_2_0" index="0" allow="pedestrian bicycle" speed="6.03" length="3.66" width="1.00" shape="1111.46,470.13 1112.41,470.46 1113.31,470.59 1114.18,470.52 1115.01,470.26"/>
    </edge>
    <edge id=":2037527986_3" function="internal">
        <lane id=":2037527986_3_0" index="0" allow="pedestrian bicycle" speed="2.04" length="1.46" width="1.00" shape="1111.46,470.13 1111.70,470.51 1111.72,470.79 1111.50,470.97 1111.06,471.05"/>
    </edge>
    <edge id=":2037527991_0" function="internal">
        <lane id=":2037527991_0_0" index="0" allow="pedestrian bicycle" speed="8.33" length="4.79" width="1.00" shape="1203.74,373.42 1202.41,372.92 1201.49,372.61 1200.55,372.37 1199.16,372.06"/>
    </edge>
    <edge id=":2037527991_1" function="internal">
        <lane id=":2037527991_1_0" index="0" allow="bicycle" speed="4.74" length="4.49" width="1.00" shape="1203.74,373.42 1202.63,372.82 1201.92,372.04 1201.61,371.08 1201.69,369.92"/>
    </edge>
    <edge id=":2037527991_2" function="internal">
        <lane id=":2037527991_2_0" index="0" allow="pedestrian bicycle" speed="2.04" length="1.46" width="1.00" shape="1203.74,373.42 1203.48,373.05 1203.45,372.77 1203.66,372.58 1204.10,372.48"/>
    </edge>
    <edge id=":2037527991_3" function="internal">
        <lane id=":2037527991_3_0" index="0" allow="bicycle" speed="3.96" length="3.04" width="1.00" shape="1202.67,370.14 1202.62,370.91 1202.84,371.55 1203.33,372.08 1204.10,372.48"/>
    </edge>
    <edge id=":2037527991_4" function="internal">
        <lane id=":2037527991_4_0" index="0" allow="bicycle" speed="4.53" length="4.54" width="1.00" shape="1202.67,370.14 1202.23,371.22 1201.50,371.90 1200.48,372.18 1199.16,372.06"/>
    </edge>
    <edge id=":2037527991_5" function="internal">
        <lane id=":2037527991_5_0" index="0" allow="bicycle" speed="2.04" length="1.46" width="1.00" shape="1202.67,370.14 1202.34,370.45 1202.07,370.52 1201.85,370.34 1201.69,369.92"/>
    </edge>
    <edge id=":2037527991_6" function="internal">
        <lane id=":2037527991_6_0" index="0" allow="bicycle" speed="3.71" length="2.94" width="1.00" shape="1199.38,371.08 1200.26,371.17 1200.93,371.01 1201.41,370.59 1201.69,369.92"/>
    </edge>
    <edge id=":2037527991_7" function="internal">
        <lane id=":2037527991_7_0" index="0" allow="pedestrian bicycle" speed="8.33" length="4.93" width="1.00" shape="1199.38,371.08 1200.81,371.40 1201.78,371.65 1202.73,371.97 1204.10,372.48"/>
    </edge>
    <edge id=":2037527991_8" function="internal">
        <lane id=":2037527991_8_0" index="0" allow="pedestrian bicycle" speed="2.04" length="1.46" width="1.00" shape="1199.38,371.08 1199.69,371.41 1199.76,371.68 1199.58,371.89 1199.16,372.06"/>
    </edge>
    <edge id=":2037527997_0" function="internal">
        <lane id=":2037527997_0_0" index="0" disallow="tram rail_urban rail rail_electric rail_fast ship" speed="12.53" length="8.23" shape="1219.52,282.91 1218.69,285.11 1218.88,286.89 1219.11,288.69 1218.42,290.97"/>
        <lane id=":2037527997_0_1" index="1" disallow="tram rail_urban rail rail_electric rail_fast ship" speed="12.53" length="8.23" shape="1216.83,281.18 1215.97,283.43 1216.13,285.25 1216.34,287.09 1215.62,289.43"/>
        <lane id=":2037527997_0_2" index="2" disallow="tram rail_urban rail rail_electric rail_fast ship" speed="12.53" length="8.23" shape="1216.83,281.18 1212.82,287.88"/>
    </edge>
    <edge id=":2037527997_3" function="internal">
        <lane id=":2037527997_3_0" index="0" disallow="tram rail_urban rail rail_electric rail_fast ship" speed="12.53" length="8.03" shape="1210.02,286.33 1214.14,279.44"/>
    </edge>
    <edge id=":2039100769_0" function="internal">
        <lane id=":2039100769_0_0" index="0" disallow="tram rail_urban rail rail_electric rail_fast ship" speed="22.22" length="9.31" shape="506.26,371.49 505.79,368.77 505.33,366.94 504.75,365.14 503.95,362.49"/>
    </edge>
    <edge id=":2039100769_1" function="internal">
        <lane id=":2039100769_1_0" index="0" disallow="tram rail_urban rail rail_electric rail_fast ship" speed="5.71" length="6.29" shape="506.26,371.49 505.71,366.04 505.80,365.24"/>
    </edge>
    <edge id=":2039100769_4" function="internal">
        <lane id=":2039100769_4_0" index="0" disallow="tram rail_urban rail rail_electric rail_fast ship" speed="5.71" length="6.51" shape="505.80,365.24 506.01,363.33 507.17,363.36 509.18,366.14"/>
    </edge>
    <edge id=":2039100769_2" function="internal">
        <lane id=":2039100769_2_0" index="0" disallow="tram rail_urban rail rail_electric rail_fast ship" speed="22.22" length="5.03" shape="507.03,361.62 507.47,363.04 507.88,363.98 508.40,364.86 509.18,366.14"/>
    </edge>
    <edge id=":2039100769_3" function="internal">
        <lane id=":2039100769_3_0" index="0" disallow="tram rail_urban rail rail_electric rail_fast ship" speed="3.65" length="1.44" shape="507.03,361.62 506.58,363.00"/>
    </edge>
    <edge id=":2039100769_5" function="internal">
        <lane id=":2039100769_5_0" index="0" disallow="tram rail_urban rail rail_electric rail_fast ship" speed="3.65" length="3.23" shape="506.58,363.00 505.92,363.60 505.04,363.43 503.95,362.49"/>
    </edge>
    <edge id=":2040184220_0" function="internal">
        <lane id=":2040184220_0_0" index="0" allow="pedestrian delivery bicycle" speed="3.65" length="4.67" shape="516.08,410.61 517.51,410.76 518.24,411.29 518.25,412.18 517.56,413.45"/>
    </edge>
    <edge id=":2040184239_0" function="internal">
        <lane id=":2040184239_0_0" index="0" allow="pedestrian delivery bicycle" speed="5.16" length="4.86" shape="460.38,427.73 459.47,426.79 458.46,426.32 457.34,426.33 456.11,426.82"/>
    </edge>
    <edge id=":2040184239_1" function="internal">
        <lane id=":2040184239_1_0" index="0" allow="pedestrian delivery bicycle" speed="6.62" length="10.16" shape="460.38,427.73 459.17,425.34 459.17,423.15 460.35,421.16 462.73,419.36"/>
    </edge>
    <edge id=":2040184239_2" function="internal">
        <lane id=":2040184239_2_0" index="0" allow="pedestrian delivery bicycle" speed="3.65" length="4.67" shape="460.38,427.73 460.32,426.29 460.74,425.50 461.62,425.35 462.97,425.86"/>
    </edge>
    <edge id=":2040184239_3" function="internal">
        <lane id=":2040184239_3_0" index="0" allow="pedestrian delivery bicycle" speed="4.72" length="4.60" shape="464.32,422.15 463.16,422.99 462.55,423.89 462.49,424.84 462.97,425.86"/>
    </edge>
    <edge id=":2040184239_4" function="internal">
        <lane id=":2040184239_4_0" index="0" disallow="tram rail_urban rail rail_electric rail_fast ship" speed="11.18" length="9.44" shape="464.32,422.15 456.11,426.82"/>
    </edge>
    <edge id=":2040184239_5" function="internal">
        <lane id=":2040184239_5_0" index="0" disallow="tram rail_urban rail rail_electric rail_fast ship" speed="11.18" length="9.44" shape="454.53,424.04 462.73,419.36"/>
    </edge>
    <edge id=":2040184239_6" function="internal">
        <lane id=":2040184239_6_0" index="0" allow="pedestrian delivery bicycle" speed="6.96" length="3.20" shape="454.53,424.04 456.95,423.07 457.54,423.07"/>
    </edge>
    <edge id=":2040184239_7" function="internal">
        <lane id=":2040184239_7_0" index="0" allow="pedestrian delivery bicycle" speed="6.96" length="6.43" shape="457.54,423.07 459.17,423.05 461.17,423.98 462.97,425.86"/>
    </edge>
    <edge id=":2044154220_0" function="internal">
        <lane id=":2044154220_0_0" index="0" disallow="tram rail_urban rail rail_electric rail_fast ship" speed="3.65" length="4.67" shape="1288.86,224.25 1290.26,224.60 1290.91,225.22 1290.80,226.11 1289.94,227.27"/>
    </edge>
    <edge id=":2044154280_0" function="internal">
        <lane id=":2044154280_0_0" index="0" allow="pedestrian delivery bicycle" speed="5.56" length="8.04" shape="1034.13,185.58 1032.31,186.49 1031.14,187.86 1030.62,189.69 1030.75,191.98"/>
    </edge>
    <edge id=":2044154280_1" function="internal">
        <lane id=":2044154280_1_0" index="0" allow="pedestrian delivery bicycle" speed="5.56" length="9.44" shape="1034.13,185.58 1031.46,186.42 1029.56,186.83 1027.64,186.82 1024.89,186.39"/>
    </edge>
    <edge id=":2044154280_2" function="internal">
        <lane id=":2044154280_2_0" index="0" allow="pedestrian delivery bicycle" speed="3.72" length="4.95" shape="1034.13,185.58 1032.60,185.66 1031.75,185.24 1031.58,184.31 1032.09,182.87"/>
    </edge>
    <edge id=":2044154280_3" function="internal">
        <lane id=":2044154280_3_0" index="0" allow="pedestrian delivery bicycle" speed="5.56" length="6.74" shape="1025.48,183.24 1027.44,183.58 1028.82,183.66 1030.19,183.44 1032.09,182.87"/>
    </edge>
    <edge id=":2044154280_4" function="internal">
        <lane id=":2044154280_4_0" index="0" allow="pedestrian delivery bicycle" speed="5.56" length="10.76" shape="1025.48,183.24 1027.24,184.06 1028.71,185.79 1029.88,188.43 1030.75,191.98"/>
    </edge>
    <edge id=":2044154280_5" function="internal">
        <lane id=":2044154280_5_0" index="0" allow="pedestrian delivery bicycle" speed="3.65" length="4.67" shape="1025.48,183.24 1026.51,184.25 1026.76,185.11 1026.22,185.82 1024.89,186.39"/>
    </edge>
    <edge id=":2044154280_6" function="internal">
        <lane id=":2044154280_6_0" index="0" allow="pedestrian delivery bicycle" speed="5.15" length="5.32" shape="1027.28,190.39 1027.39,188.86 1027.02,187.68 1026.19,186.85 1024.89,186.39"/>
    </edge>
    <edge id=":2044154280_7" function="internal">
        <lane id=":2044154280_7_0" index="0" allow="pedestrian delivery bicycle" speed="5.56" length="9.34" shape="1027.28,190.39 1028.06,187.53 1029.12,185.32 1030.46,183.76 1032.09,182.87"/>
    </edge>
    <edge id=":2044154280_8" function="internal">
        <lane id=":2044154280_8_0" index="0" allow="pedestrian delivery bicycle" speed="4.08" length="5.58" shape="1027.28,190.39 1028.74,189.49 1029.81,189.45 1030.48,190.29 1030.75,191.98"/>
    </edge>
    <edge id=":2044154369_0" function="internal">
        <lane id=":2044154369_0_0" index="0" allow="pedestrian delivery bicycle" speed="3.65" length="4.67" shape="981.64,142.94 982.50,141.78 983.32,141.42 984.10,141.86 984.83,143.10"/>
    </edge>
    <edge id=":2044154387_0" function="internal">
        <lane id=":2044154387_0_0" index="0" disallow="tram rail_urban rail rail_electric rail_fast ship" speed="11.18" length="7.91" shape="1285.74,232.18 1283.57,232.92 1282.06,233.41 1280.60,233.97 1278.52,234.95"/>
        <lane id=":2044154387_0_1" index="1" disallow="tram rail_urban rail rail_electric rail_fast ship" speed="11.18" length="7.91" shape="1284.66,229.17 1282.40,229.94 1280.84,230.45 1279.31,231.04 1277.15,232.06"/>
    </edge>
    <edge id=":2044154387_2" function="internal">
        <lane id=":2044154387_2_0" index="0" allow="pedestrian delivery bicycle" speed="6.86" length="1.94" shape="1284.66,229.17 1282.73,229.21"/>
    </edge>
    <edge id=":2044154387_6" function="internal">
        <lane id=":2044154387_6_0" index="0" allow="pedestrian delivery bicycle" speed="6.86" length="9.47" shape="1282.73,229.21 1281.09,227.86 1279.74,225.11 1278.70,220.96"/>
    </edge>
    <edge id=":2044154387_3" function="internal">
        <lane id=":2044154387_3_0" index="0" allow="pedestrian delivery bicycle" speed="5.59" length="5.21" shape="1274.41,226.27 1275.18,225.66 1275.63,224.67 1275.75,223.30 1275.55,221.54"/>
    </edge>
    <edge id=":2044154387_4" function="internal">
        <lane id=":2044154387_4_0" index="0" disallow="tram rail_urban rail rail_electric rail_fast ship" speed="11.18" length="8.51" shape="1274.41,226.27 1282.50,223.14"/>
        <lane id=":2044154387_4_1" index="1" disallow="tram rail_urban rail rail_electric rail_fast ship" speed="11.18" length="8.51" shape="1275.78,229.16 1283.58,226.15"/>
    </edge>
    <edge id=":2044154436_0" function="internal">
        <lane id=":2044154436_0_0" index="0" allow="pedestrian delivery bicycle" speed="5.56" length="1.13" shape="1262.75,155.56 1263.24,155.45 1263.59,155.40 1263.93,155.42 1264.43,155.47"/>
        <lane id=":2044154436_0_1" index="1" allow="pedestrian delivery bicycle" speed="5.56" length="1.13" shape="1263.46,158.68 1263.63,158.64 1263.74,158.63 1263.86,158.63 1264.02,158.65"/>
    </edge>
    <edge id=":2044154443_0" function="internal">
        <lane id=":2044154443_0_0" index="0" allow="pedestrian delivery bicycle" speed="5.56" length="21.35" shape="1269.43,202.93 1266.67,200.93 1262.33,199.68 1256.41,199.19 1248.92,199.44"/>
    </edge>
    <edge id=":2044154443_1" function="internal">
        <lane id=":2044154443_1_0" index="0" allow="pedestrian delivery bicycle" speed="5.56" length="24.35" shape="1269.43,202.93 1264.57,198.93 1259.60,197.08 1254.55,195.30 1249.42,191.54"/>
        <lane id=":2044154443_1_1" index="1" allow="pedestrian delivery bicycle" speed="5.56" length="24.35" shape="1271.75,200.72 1266.65,196.47 1261.16,194.06 1255.58,191.73 1250.22,187.71"/>
    </edge>
    <edge id=":2044154443_3" function="internal">
        <lane id=":2044154443_3_0" index="0" allow="pedestrian delivery bicycle" speed="5.56" length="24.38" shape="1272.98,196.40 1267.02,198.95 1261.49,199.58 1255.69,199.37 1248.92,199.44"/>
        <lane id=":2044154443_3_1" index="1" allow="pedestrian delivery bicycle" speed="5.56" length="24.38" shape="1272.24,193.11 1266.35,195.68 1260.99,196.34 1255.37,196.17 1248.68,196.25"/>
    </edge>
    <edge id=":2044154443_5" function="internal">
        <lane id=":2044154443_5_0" index="0" allow="pedestrian delivery bicycle" speed="5.56" length="24.74" shape="1272.24,193.11 1266.82,195.22 1261.35,195.02 1255.81,192.52 1250.22,187.71"/>
    </edge>
    <edge id=":2044154448_0" function="internal">
        <lane id=":2044154448_0_0" index="0" allow="pedestrian delivery bicycle" speed="5.56" length="1.80" shape="1043.96,193.19 1043.83,193.71 1043.71,194.06 1043.53,194.38 1043.24,194.83"/>
    </edge>
    <edge id=":2044154448_1" function="internal">
        <lane id=":2044154448_1_0" index="0" allow="pedestrian delivery bicycle" speed="5.56" length="0.60" shape="1040.60,193.02 1040.70,192.87 1040.76,192.76 1040.80,192.65 1040.84,192.47"/>
    </edge>
    <edge id=":2263766549_0" function="internal">
        <lane id=":2263766549_0_0" index="0" disallow="tram rail_urban rail rail_electric rail_fast ship" speed="13.89" length="4.97" shape="1582.57,900.40 1577.88,898.76"/>
    </edge>
    <edge id=":2263766549_1" function="internal">
        <lane id=":2263766549_1_0" index="0" disallow="tram rail_urban rail rail_electric rail_fast ship" speed="13.89" length="5.02" shape="1578.92,895.74 1583.66,897.39"/>
    </edge>
    <edge id=":2292987429_0" function="internal">
        <lane id=":2292987429_0_0" index="0" disallow="tram rail_urban rail rail_electric rail_fast ship" speed="13.89" length="0.25" shape="1208.60,314.75 1208.58,314.83"/>
        <lane id=":2292987429_0_1" index="1" disallow="tram rail_urban rail rail_electric rail_fast ship" speed="13.89" length="0.25" shape="1205.59,313.67 1205.51,313.91"/>
        <lane id=":2292987429_0_2" index="2" disallow="tram rail_urban rail rail_electric rail_fast ship" speed="13.89" length="0.25" shape="1202.58,312.59 1202.45,312.98"/>
    </edge>
    <edge id=":2292987429_3" function="internal">
        <lane id=":2292987429_3_0" index="0" disallow="tram rail_urban rail rail_electric rail_fast ship" speed="13.89" length="0.58" shape="1199.39,312.06 1199.57,311.50"/>
    </edge>
    <edge id=":2342114817_0" function="internal">
        <lane id=":2342114817_0_0" index="0" allow="pedestrian delivery bicycle" speed="3.65" length="4.67" shape="750.50,744.77 749.95,743.44 750.07,742.55 750.85,742.11 752.29,742.12"/>
    </edge>
    <edge id=":2342819767_0" function="internal">
        <lane id=":2342819767_0_0" index="0" disallow="tram rail_urban rail rail_electric rail_fast ship" speed="13.89" length="0.25" shape="1212.76,303.22 1212.72,303.31"/>
        <lane id=":2342819767_0_1" index="1" disallow="tram rail_urban rail rail_electric rail_fast ship" speed="13.89" length="0.25" shape="1209.80,301.99 1209.71,302.22"/>
        <lane id=":2342819767_0_2" index="2" disallow="tram rail_urban rail rail_electric rail_fast ship" speed="13.89" length="0.25" shape="1206.84,300.77 1206.70,301.14"/>
    </edge>
    <edge id=":2342819767_3" function="internal">
        <lane id=":2342819767_3_0" index="0" disallow="tram rail_urban rail rail_electric rail_fast ship" speed="13.89" length="0.54" shape="1203.69,300.06 1203.88,299.55"/>
    </edge>
    <edge id=":2667121745_0" function="internal">
        <lane id=":2667121745_0_0" index="0" allow="pedestrian delivery bicycle" speed="5.56" length="8.52" shape="499.37,598.34 498.08,600.52 497.15,601.97 496.15,603.39 494.67,605.44"/>
    </edge>
    <edge id=":2667121745_1" function="internal">
        <lane id=":2667121745_1_0" index="0" allow="pedestrian delivery bicycle" speed="5.56" length="9.38" shape="499.37,598.34 497.95,599.95 496.10,600.65 493.81,600.43 491.09,599.30"/>
    </edge>
    <edge id=":2667121745_2" function="internal">
        <lane id=":2667121745_2_0" index="0" allow="pedestrian delivery bicycle" speed="3.65" length="4.67" shape="499.37,598.34 498.08,598.98 497.19,598.92 496.70,598.17 496.61,596.73"/>
    </edge>
    <edge id=":2667121745_3" function="internal">
        <lane id=":2667121745_3_0" index="0" allow="pedestrian delivery bicycle" speed="4.83" length="4.39" shape="492.61,596.48 494.04,597.14 495.18,597.40 496.04,597.26 496.61,596.73"/>
    </edge>
    <edge id=":2667121745_4" function="internal">
        <lane id=":2667121745_4_0" index="0" allow="pedestrian delivery bicycle" speed="5.56" length="10.81" shape="492.61,596.48 495.03,598.28 496.18,600.37 496.06,602.76 494.67,605.44"/>
    </edge>
    <edge id=":2667121745_5" function="internal">
        <lane id=":2667121745_5_0" index="0" allow="pedestrian delivery bicycle" speed="3.65" length="4.67" shape="492.61,596.48 493.28,597.76 493.25,598.65 492.52,599.16 491.09,599.30"/>
    </edge>
    <edge id=":2667121745_6" function="internal">
        <lane id=":2667121745_6_0" index="0" allow="pedestrian delivery bicycle" speed="4.91" length="5.16" shape="492.07,603.57 492.73,602.29 492.79,601.15 492.24,600.16 491.09,599.30"/>
    </edge>
    <edge id=":2667121745_7" function="internal">
        <lane id=":2667121745_7_0" index="0" allow="pedestrian delivery bicycle" speed="5.56" length="8.21" shape="492.07,603.57 493.50,601.59 494.46,600.23 495.36,598.83 496.61,596.73"/>
    </edge>
    <edge id=":2667121745_8" function="internal">
        <lane id=":2667121745_8_0" index="0" allow="pedestrian delivery bicycle" speed="3.65" length="4.67" shape="492.07,603.57 493.42,603.06 494.30,603.20 494.72,603.99 494.67,605.44"/>
    </edge>
    <edge id=":2667121748_0" function="internal">
        <lane id=":2667121748_0_0" index="0" allow="pedestrian delivery bicycle" speed="3.65" length="4.67" shape="418.35,580.61 417.57,579.40 417.52,578.51 418.20,577.94 419.62,577.68"/>
    </edge>
    <edge id=":2667121771_0" function="internal">
        <lane id=":2667121771_0_0" index="0" allow="pedestrian delivery bicycle" speed="4.99" length="5.06" shape="507.72,590.30 506.45,589.71 505.32,589.69 504.32,590.22 503.45,591.32"/>
    </edge>
    <edge id=":2667121771_1" function="internal">
        <lane id=":2667121771_1_0" index="0" disallow="tram rail_urban rail rail_electric rail_fast ship" speed="13.41" length="9.41" shape="507.72,590.30 499.84,585.16"/>
        <lane id=":2667121771_1_1" index="1" disallow="tram rail_urban rail rail_electric rail_fast ship" speed="13.41" length="9.41" shape="509.47,587.62 501.59,582.48"/>
    </edge>
    <edge id=":2667121771_3" function="internal">