 <edges>
<edge from='n1' to='n2' id='in1to2' type='1L56'/>
<edge from='n2' to='n3' id='2to3' type='1L48'/>
<edge from='n3' to='n4' id='3to4' type='1L48'/>
<edge from='n4' to='n5' id='4to5' type='2L48'/>
<edge from='n5' to='n6' id='5to6out' type='1L56'/>
</edges>