<routes>
<vType accel='2.5' decel='5.0' id='EV' length='4.7' maxSpeed='100.0' sigma='0.0' />
<vType accel='1.0' decel='5.0' id='Truck' length='9.7' maxSpeed='100.0' sigma='0.0' />

<route id='route0' edges='in1to2 2to3 3to4 4to5 5to6out' />
<vehicle depart='10' id='veh0' route='route0' type='Truck' />
<route id='route1' edges='in1to2 2to3 3to4 4to5 5to6out' />
<vehicle depart='20' id='veh1' route='route0' type='EV' />
<route id='route2' edges='in1to2 2to3 3to4 4to5 5to6out' />
<vehicle depart='30' id='veh2' route='route0' type='EV' />
<route id='route3' edges='in1to2 2to3 3to4 4to5 5to6out' />
<vehicle depart='40' id='veh3' route='route3' type='Truck' />

</routes>