<nodes>
<node id = 'n1' x='0' y='0' type='traffic_light'/>
<node id = 'n2' x='-200' y='50' type='priority'/>  
<node id = 'n3' x='-230' y='75' type='priority'/>
<node id = 'n4' x='-350' y='700'/>
<node id = 'n5' x='-450' y='750' type='traffic_light'/>
<node id = 'n6' x='-550' y='650'/>
</nodes>



